<?xml version="1.0" encoding="UTF-8"?>

<!-- generated on 2025-11-08 21:20:26 by Eclipse SUMO duarouter Version 1.24.0
<duarouterConfiguration xmlns:xsi="http://www.w3.org/2001/XMLSchema-instance" xsi:noNamespaceSchemaLocation="http://sumo.dlr.de/xsd/duarouterConfiguration.xsd">

    <input>
        <net-file value="net.net.xml"/>
        <additional-files value="vtypes.add.xml"/>
        <route-files value="trips.trips.xml"/>
    </input>

    <output>
        <output-file value="routes.rou.xml"/>
    </output>

    <random_number>
        <seed value="42"/>
    </random_number>

</duarouterConfiguration>
-->

<routes xmlns:xsi="http://www.w3.org/2001/XMLSchema-instance" xsi:noNamespaceSchemaLocation="http://sumo.dlr.de/xsd/routes_file.xsd">
    <vType id="car" length="5.00" minGap="2.50" maxSpeed="13.90" guiShape="passenger" accel="2.6" decel="4.5"/>
    <vehicle id="v0" type="car" depart="0.00">
        <route edges="E_A_J1 E_J1_J2 E_J2_J3 E_J3_O"/>
    </vehicle>
    <vehicle id="v1" type="car" depart="0.00">
        <route edges="E_S1N_J1 E_J1_J2 E_J2_J3 E_J3_O"/>
    </vehicle>
    <vehicle id="v2" type="car" depart="1.50">
        <route edges="E_A_J1 E_J1_J2 E_J2_J3 E_J3_O"/>
    </vehicle>
    <vehicle id="v3" type="car" depart="3.00">
        <route edges="E_A_J1 E_J1_J2 E_J2_J3 E_J3_O"/>
    </vehicle>
    <vehicle id="v4" type="car" depart="4.50">
        <route edges="E_A_J1 E_J1_J2 E_J2_J3 E_J3_O"/>
    </vehicle>
    <vehicle id="v5" type="car" depart="4.50">
        <route edges="E_S2N_J2 E_J2_J3 E_J3_O"/>
    </vehicle>
    <vehicle id="v6" type="car" depart="6.00">
        <route edges="E_A_J1 E_J1_J2 E_J2_J3 E_J3_O"/>
    </vehicle>
    <vehicle id="v7" type="car" depart="7.50">
        <route edges="E_A_J1 E_J1_J2 E_J2_J3 E_J3_O"/>
    </vehicle>
    <vehicle id="v8" type="car" depart="9.00">
        <route edges="E_A_J1 E_J1_J2 E_J2_J3 E_J3_O"/>
    </vehicle>
    <vehicle id="v9" type="car" depart="9.00">
        <route edges="E_S3N_J3 E_J3_O"/>
    </vehicle>
    <vehicle id="v10" type="car" depart="10.50">
        <route edges="E_A_J1 E_J1_J2 E_J2_J3 E_J3_O"/>
    </vehicle>
    <vehicle id="v11" type="car" depart="12.00">
        <route edges="E_A_J1 E_J1_J2 E_J2_J3 E_J3_O"/>
    </vehicle>
    <vehicle id="v12" type="car" depart="13.50">
        <route edges="E_A_J1 E_J1_J2 E_J2_J3 E_J3_O"/>
    </vehicle>
    <vehicle id="v13" type="car" depart="13.50">
        <route edges="E_S1N_J1 E_J1_J2 E_J2_J3 E_J3_O"/>
    </vehicle>
    <vehicle id="v14" type="car" depart="15.00">
        <route edges="E_A_J1 E_J1_J2 E_J2_J3 E_J3_O"/>
    </vehicle>
    <vehicle id="v15" type="car" depart="16.50">
        <route edges="E_A_J1 E_J1_J2 E_J2_J3 E_J3_O"/>
    </vehicle>
    <vehicle id="v16" type="car" depart="18.00">
        <route edges="E_A_J1 E_J1_J2 E_J2_J3 E_J3_O"/>
    </vehicle>
    <vehicle id="v17" type="car" depart="18.00">
        <route edges="E_S2N_J2 E_J2_J3 E_J3_O"/>
    </vehicle>
    <vehicle id="v18" type="car" depart="19.50">
        <route edges="E_A_J1 E_J1_J2 E_J2_J3 E_J3_O"/>
    </vehicle>
    <vehicle id="v19" type="car" depart="21.00">
        <route edges="E_A_J1 E_J1_J2 E_J2_J3 E_J3_O"/>
    </vehicle>
    <vehicle id="v20" type="car" depart="22.50">
        <route edges="E_A_J1 E_J1_J2 E_J2_J3 E_J3_O"/>
    </vehicle>
    <vehicle id="v21" type="car" depart="22.50">
        <route edges="E_S3N_J3 E_J3_O"/>
    </vehicle>
    <vehicle id="v22" type="car" depart="24.00">
        <route edges="E_A_J1 E_J1_J2 E_J2_J3 E_J3_O"/>
    </vehicle>
    <vehicle id="v23" type="car" depart="25.50">
        <route edges="E_A_J1 E_J1_J2 E_J2_J3 E_J3_O"/>
    </vehicle>
    <vehicle id="v24" type="car" depart="27.00">
        <route edges="E_A_J1 E_J1_J2 E_J2_J3 E_J3_O"/>
    </vehicle>
    <vehicle id="v25" type="car" depart="27.00">
        <route edges="E_S1N_J1 E_J1_J2 E_J2_J3 E_J3_O"/>
    </vehicle>
    <vehicle id="v26" type="car" depart="28.50">
        <route edges="E_A_J1 E_J1_J2 E_J2_J3 E_J3_O"/>
    </vehicle>
    <vehicle id="v27" type="car" depart="30.00">
        <route edges="E_A_J1 E_J1_J2 E_J2_J3 E_J3_O"/>
    </vehicle>
    <vehicle id="v28" type="car" depart="31.50">
        <route edges="E_A_J1 E_J1_J2 E_J2_J3 E_J3_O"/>
    </vehicle>
    <vehicle id="v29" type="car" depart="31.50">
        <route edges="E_S2N_J2 E_J2_J3 E_J3_O"/>
    </vehicle>
    <vehicle id="v30" type="car" depart="33.00">
        <route edges="E_A_J1 E_J1_J2 E_J2_J3 E_J3_O"/>
    </vehicle>
    <vehicle id="v31" type="car" depart="34.50">
        <route edges="E_A_J1 E_J1_J2 E_J2_J3 E_J3_O"/>
    </vehicle>
    <vehicle id="v32" type="car" depart="36.00">
        <route edges="E_A_J1 E_J1_J2 E_J2_J3 E_J3_O"/>
    </vehicle>
    <vehicle id="v33" type="car" depart="36.00">
        <route edges="E_S3N_J3 E_J3_O"/>
    </vehicle>
    <vehicle id="v34" type="car" depart="37.50">
        <route edges="E_A_J1 E_J1_J2 E_J2_J3 E_J3_O"/>
    </vehicle>
    <vehicle id="v35" type="car" depart="39.00">
        <route edges="E_A_J1 E_J1_J2 E_J2_J3 E_J3_O"/>
    </vehicle>
    <vehicle id="v36" type="car" depart="40.50">
        <route edges="E_A_J1 E_J1_J2 E_J2_J3 E_J3_O"/>
    </vehicle>
    <vehicle id="v37" type="car" depart="40.50">
        <route edges="E_S1N_J1 E_J1_J2 E_J2_J3 E_J3_O"/>
    </vehicle>
    <vehicle id="v38" type="car" depart="42.00">
        <route edges="E_A_J1 E_J1_J2 E_J2_J3 E_J3_O"/>
    </vehicle>
    <vehicle id="v39" type="car" depart="43.50">
        <route edges="E_A_J1 E_J1_J2 E_J2_J3 E_J3_O"/>
    </vehicle>
    <vehicle id="v40" type="car" depart="45.00">
        <route edges="E_A_J1 E_J1_J2 E_J2_J3 E_J3_O"/>
    </vehicle>
    <vehicle id="v41" type="car" depart="45.00">
        <route edges="E_S2N_J2 E_J2_J3 E_J3_O"/>
    </vehicle>
    <vehicle id="v42" type="car" depart="46.50">
        <route edges="E_A_J1 E_J1_J2 E_J2_J3 E_J3_O"/>
    </vehicle>
    <vehicle id="v43" type="car" depart="48.00">
        <route edges="E_A_J1 E_J1_J2 E_J2_J3 E_J3_O"/>
    </vehicle>
    <vehicle id="v44" type="car" depart="49.50">
        <route edges="E_A_J1 E_J1_J2 E_J2_J3 E_J3_O"/>
    </vehicle>
    <vehicle id="v45" type="car" depart="49.50">
        <route edges="E_S3N_J3 E_J3_O"/>
    </vehicle>
    <vehicle id="v46" type="car" depart="51.00">
        <route edges="E_A_J1 E_J1_J2 E_J2_J3 E_J3_O"/>
    </vehicle>
    <vehicle id="v47" type="car" depart="52.50">
        <route edges="E_A_J1 E_J1_J2 E_J2_J3 E_J3_O"/>
    </vehicle>
    <vehicle id="v48" type="car" depart="54.00">
        <route edges="E_A_J1 E_J1_J2 E_J2_J3 E_J3_O"/>
    </vehicle>
    <vehicle id="v49" type="car" depart="54.00">
        <route edges="E_S1N_J1 E_J1_J2 E_J2_J3 E_J3_O"/>
    </vehicle>
    <vehicle id="v50" type="car" depart="55.50">
        <route edges="E_A_J1 E_J1_J2 E_J2_J3 E_J3_O"/>
    </vehicle>
    <vehicle id="v51" type="car" depart="57.00">
        <route edges="E_A_J1 E_J1_J2 E_J2_J3 E_J3_O"/>
    </vehicle>
    <vehicle id="v52" type="car" depart="58.50">
        <route edges="E_A_J1 E_J1_J2 E_J2_J3 E_J3_O"/>
    </vehicle>
    <vehicle id="v53" type="car" depart="58.50">
        <route edges="E_S2N_J2 E_J2_J3 E_J3_O"/>
    </vehicle>
    <vehicle id="v54" type="car" depart="60.00">
        <route edges="E_A_J1 E_J1_J2 E_J2_J3 E_J3_O"/>
    </vehicle>
    <vehicle id="v55" type="car" depart="61.50">
        <route edges="E_A_J1 E_J1_J2 E_J2_J3 E_J3_O"/>
    </vehicle>
    <vehicle id="v56" type="car" depart="63.00">
        <route edges="E_A_J1 E_J1_J2 E_J2_J3 E_J3_O"/>
    </vehicle>
    <vehicle id="v57" type="car" depart="63.00">
        <route edges="E_S3N_J3 E_J3_O"/>
    </vehicle>
    <vehicle id="v58" type="car" depart="64.50">
        <route edges="E_A_J1 E_J1_J2 E_J2_J3 E_J3_O"/>
    </vehicle>
    <vehicle id="v59" type="car" depart="66.00">
        <route edges="E_A_J1 E_J1_J2 E_J2_J3 E_J3_O"/>
    </vehicle>
    <vehicle id="v60" type="car" depart="67.50">
        <route edges="E_A_J1 E_J1_J2 E_J2_J3 E_J3_O"/>
    </vehicle>
    <vehicle id="v61" type="car" depart="67.50">
        <route edges="E_S1N_J1 E_J1_J2 E_J2_J3 E_J3_O"/>
    </vehicle>
    <vehicle id="v62" type="car" depart="69.00">
        <route edges="E_A_J1 E_J1_J2 E_J2_J3 E_J3_O"/>
    </vehicle>
    <vehicle id="v63" type="car" depart="70.50">
        <route edges="E_A_J1 E_J1_J2 E_J2_J3 E_J3_O"/>
    </vehicle>
    <vehicle id="v64" type="car" depart="72.00">
        <route edges="E_A_J1 E_J1_J2 E_J2_J3 E_J3_O"/>
    </vehicle>
    <vehicle id="v65" type="car" depart="72.00">
        <route edges="E_S2N_J2 E_J2_J3 E_J3_O"/>
    </vehicle>
    <vehicle id="v66" type="car" depart="73.50">
        <route edges="E_A_J1 E_J1_J2 E_J2_J3 E_J3_O"/>
    </vehicle>
    <vehicle id="v67" type="car" depart="75.00">
        <route edges="E_A_J1 E_J1_J2 E_J2_J3 E_J3_O"/>
    </vehicle>
    <vehicle id="v68" type="car" depart="76.50">
        <route edges="E_A_J1 E_J1_J2 E_J2_J3 E_J3_O"/>
    </vehicle>
    <vehicle id="v69" type="car" depart="76.50">
        <route edges="E_S3N_J3 E_J3_O"/>
    </vehicle>
    <vehicle id="v70" type="car" depart="78.00">
        <route edges="E_A_J1 E_J1_J2 E_J2_J3 E_J3_O"/>
    </vehicle>
    <vehicle id="v71" type="car" depart="79.50">
        <route edges="E_A_J1 E_J1_J2 E_J2_J3 E_J3_O"/>
    </vehicle>
    <vehicle id="v72" type="car" depart="81.00">
        <route edges="E_A_J1 E_J1_J2 E_J2_J3 E_J3_O"/>
    </vehicle>
    <vehicle id="v73" type="car" depart="81.00">
        <route edges="E_S1N_J1 E_J1_J2 E_J2_J3 E_J3_O"/>
    </vehicle>
    <vehicle id="v74" type="car" depart="82.50">
        <route edges="E_A_J1 E_J1_J2 E_J2_J3 E_J3_O"/>
    </vehicle>
    <vehicle id="v75" type="car" depart="84.00">
        <route edges="E_A_J1 E_J1_J2 E_J2_J3 E_J3_O"/>
    </vehicle>
    <vehicle id="v76" type="car" depart="85.50">
        <route edges="E_A_J1 E_J1_J2 E_J2_J3 E_J3_O"/>
    </vehicle>
    <vehicle id="v77" type="car" depart="85.50">
        <route edges="E_S2N_J2 E_J2_J3 E_J3_O"/>
    </vehicle>
    <vehicle id="v78" type="car" depart="87.00">
        <route edges="E_A_J1 E_J1_J2 E_J2_J3 E_J3_O"/>
    </vehicle>
    <vehicle id="v79" type="car" depart="88.50">
        <route edges="E_A_J1 E_J1_J2 E_J2_J3 E_J3_O"/>
    </vehicle>
    <vehicle id="v80" type="car" depart="90.00">
        <route edges="E_A_J1 E_J1_J2 E_J2_J3 E_J3_O"/>
    </vehicle>
    <vehicle id="v81" type="car" depart="90.00">
        <route edges="E_S3N_J3 E_J3_O"/>
    </vehicle>
    <vehicle id="v82" type="car" depart="91.50">
        <route edges="E_A_J1 E_J1_J2 E_J2_J3 E_J3_O"/>
    </vehicle>
    <vehicle id="v83" type="car" depart="93.00">
        <route edges="E_A_J1 E_J1_J2 E_J2_J3 E_J3_O"/>
    </vehicle>
    <vehicle id="v84" type="car" depart="94.50">
        <route edges="E_A_J1 E_J1_J2 E_J2_J3 E_J3_O"/>
    </vehicle>
    <vehicle id="v85" type="car" depart="94.50">
        <route edges="E_S1N_J1 E_J1_J2 E_J2_J3 E_J3_O"/>
    </vehicle>
    <vehicle id="v86" type="car" depart="96.00">
        <route edges="E_A_J1 E_J1_J2 E_J2_J3 E_J3_O"/>
    </vehicle>
    <vehicle id="v87" type="car" depart="97.50">
        <route edges="E_A_J1 E_J1_J2 E_J2_J3 E_J3_O"/>
    </vehicle>
    <vehicle id="v88" type="car" depart="99.00">
        <route edges="E_A_J1 E_J1_J2 E_J2_J3 E_J3_O"/>
    </vehicle>
    <vehicle id="v89" type="car" depart="99.00">
        <route edges="E_S2N_J2 E_J2_J3 E_J3_O"/>
    </vehicle>
    <vehicle id="v90" type="car" depart="100.50">
        <route edges="E_A_J1 E_J1_J2 E_J2_J3 E_J3_O"/>
    </vehicle>
    <vehicle id="v91" type="car" depart="102.00">
        <route edges="E_A_J1 E_J1_J2 E_J2_J3 E_J3_O"/>
    </vehicle>
    <vehicle id="v92" type="car" depart="103.50">
        <route edges="E_A_J1 E_J1_J2 E_J2_J3 E_J3_O"/>
    </vehicle>
    <vehicle id="v93" type="car" depart="103.50">
        <route edges="E_S3N_J3 E_J3_O"/>
    </vehicle>
    <vehicle id="v94" type="car" depart="105.00">
        <route edges="E_A_J1 E_J1_J2 E_J2_J3 E_J3_O"/>
    </vehicle>
    <vehicle id="v95" type="car" depart="106.50">
        <route edges="E_A_J1 E_J1_J2 E_J2_J3 E_J3_O"/>
    </vehicle>
    <vehicle id="v96" type="car" depart="108.00">
        <route edges="E_A_J1 E_J1_J2 E_J2_J3 E_J3_O"/>
    </vehicle>
    <vehicle id="v97" type="car" depart="108.00">
        <route edges="E_S1N_J1 E_J1_J2 E_J2_J3 E_J3_O"/>
    </vehicle>
    <vehicle id="v98" type="car" depart="109.50">
        <route edges="E_A_J1 E_J1_J2 E_J2_J3 E_J3_O"/>
    </vehicle>
    <vehicle id="v99" type="car" depart="111.00">
        <route edges="E_A_J1 E_J1_J2 E_J2_J3 E_J3_O"/>
    </vehicle>
    <vehicle id="v100" type="car" depart="112.50">
        <route edges="E_A_J1 E_J1_J2 E_J2_J3 E_J3_O"/>
    </vehicle>
    <vehicle id="v101" type="car" depart="112.50">
        <route edges="E_S2N_J2 E_J2_J3 E_J3_O"/>
    </vehicle>
    <vehicle id="v102" type="car" depart="114.00">
        <route edges="E_A_J1 E_J1_J2 E_J2_J3 E_J3_O"/>
    </vehicle>
    <vehicle id="v103" type="car" depart="115.50">
        <route edges="E_A_J1 E_J1_J2 E_J2_J3 E_J3_O"/>
    </vehicle>
    <vehicle id="v104" type="car" depart="117.00">
        <route edges="E_A_J1 E_J1_J2 E_J2_J3 E_J3_O"/>
    </vehicle>
    <vehicle id="v105" type="car" depart="117.00">
        <route edges="E_S3N_J3 E_J3_O"/>
    </vehicle>
    <vehicle id="v106" type="car" depart="118.50">
        <route edges="E_A_J1 E_J1_J2 E_J2_J3 E_J3_O"/>
    </vehicle>
    <vehicle id="v107" type="car" depart="120.00">
        <route edges="E_A_J1 E_J1_J2 E_J2_J3 E_J3_O"/>
    </vehicle>
    <vehicle id="v108" type="car" depart="121.50">
        <route edges="E_A_J1 E_J1_J2 E_J2_J3 E_J3_O"/>
    </vehicle>
    <vehicle id="v109" type="car" depart="121.50">
        <route edges="E_S1N_J1 E_J1_J2 E_J2_J3 E_J3_O"/>
    </vehicle>
    <vehicle id="v110" type="car" depart="123.00">
        <route edges="E_A_J1 E_J1_J2 E_J2_J3 E_J3_O"/>
    </vehicle>
    <vehicle id="v111" type="car" depart="124.50">
        <route edges="E_A_J1 E_J1_J2 E_J2_J3 E_J3_O"/>
    </vehicle>
    <vehicle id="v112" type="car" depart="126.00">
        <route edges="E_A_J1 E_J1_J2 E_J2_J3 E_J3_O"/>
    </vehicle>
    <vehicle id="v113" type="car" depart="126.00">
        <route edges="E_S2N_J2 E_J2_J3 E_J3_O"/>
    </vehicle>
    <vehicle id="v114" type="car" depart="127.50">
        <route edges="E_A_J1 E_J1_J2 E_J2_J3 E_J3_O"/>
    </vehicle>
    <vehicle id="v115" type="car" depart="129.00">
        <route edges="E_A_J1 E_J1_J2 E_J2_J3 E_J3_O"/>
    </vehicle>
    <vehicle id="v116" type="car" depart="130.50">
        <route edges="E_A_J1 E_J1_J2 E_J2_J3 E_J3_O"/>
    </vehicle>
    <vehicle id="v117" type="car" depart="130.50">
        <route edges="E_S3N_J3 E_J3_O"/>
    </vehicle>
    <vehicle id="v118" type="car" depart="132.00">
        <route edges="E_A_J1 E_J1_J2 E_J2_J3 E_J3_O"/>
    </vehicle>
    <vehicle id="v119" type="car" depart="133.50">
        <route edges="E_A_J1 E_J1_J2 E_J2_J3 E_J3_O"/>
    </vehicle>
    <vehicle id="v120" type="car" depart="135.00">
        <route edges="E_A_J1 E_J1_J2 E_J2_J3 E_J3_O"/>
    </vehicle>
    <vehicle id="v121" type="car" depart="135.00">
        <route edges="E_S1N_J1 E_J1_J2 E_J2_J3 E_J3_O"/>
    </vehicle>
    <vehicle id="v122" type="car" depart="136.50">
        <route edges="E_A_J1 E_J1_J2 E_J2_J3 E_J3_O"/>
    </vehicle>
    <vehicle id="v123" type="car" depart="138.00">
        <route edges="E_A_J1 E_J1_J2 E_J2_J3 E_J3_O"/>
    </vehicle>
    <vehicle id="v124" type="car" depart="139.50">
        <route edges="E_A_J1 E_J1_J2 E_J2_J3 E_J3_O"/>
    </vehicle>
    <vehicle id="v125" type="car" depart="139.50">
        <route edges="E_S2N_J2 E_J2_J3 E_J3_O"/>
    </vehicle>
    <vehicle id="v126" type="car" depart="141.00">
        <route edges="E_A_J1 E_J1_J2 E_J2_J3 E_J3_O"/>
    </vehicle>
    <vehicle id="v127" type="car" depart="142.50">
        <route edges="E_A_J1 E_J1_J2 E_J2_J3 E_J3_O"/>
    </vehicle>
    <vehicle id="v128" type="car" depart="144.00">
        <route edges="E_A_J1 E_J1_J2 E_J2_J3 E_J3_O"/>
    </vehicle>
    <vehicle id="v129" type="car" depart="144.00">
        <route edges="E_S3N_J3 E_J3_O"/>
    </vehicle>
    <vehicle id="v130" type="car" depart="145.50">
        <route edges="E_A_J1 E_J1_J2 E_J2_J3 E_J3_O"/>
    </vehicle>
    <vehicle id="v131" type="car" depart="147.00">
        <route edges="E_A_J1 E_J1_J2 E_J2_J3 E_J3_O"/>
    </vehicle>
    <vehicle id="v132" type="car" depart="148.50">
        <route edges="E_A_J1 E_J1_J2 E_J2_J3 E_J3_O"/>
    </vehicle>
    <vehicle id="v133" type="car" depart="148.50">
        <route edges="E_S1N_J1 E_J1_J2 E_J2_J3 E_J3_O"/>
    </vehicle>
    <vehicle id="v134" type="car" depart="150.00">
        <route edges="E_A_J1 E_J1_J2 E_J2_J3 E_J3_O"/>
    </vehicle>
    <vehicle id="v135" type="car" depart="151.50">
        <route edges="E_A_J1 E_J1_J2 E_J2_J3 E_J3_O"/>
    </vehicle>
    <vehicle id="v136" type="car" depart="153.00">
        <route edges="E_A_J1 E_J1_J2 E_J2_J3 E_J3_O"/>
    </vehicle>
    <vehicle id="v137" type="car" depart="153.00">
        <route edges="E_S2N_J2 E_J2_J3 E_J3_O"/>
    </vehicle>
    <vehicle id="v138" type="car" depart="154.50">
        <route edges="E_A_J1 E_J1_J2 E_J2_J3 E_J3_O"/>
    </vehicle>
    <vehicle id="v139" type="car" depart="156.00">
        <route edges="E_A_J1 E_J1_J2 E_J2_J3 E_J3_O"/>
    </vehicle>
    <vehicle id="v140" type="car" depart="157.50">
        <route edges="E_A_J1 E_J1_J2 E_J2_J3 E_J3_O"/>
    </vehicle>
    <vehicle id="v141" type="car" depart="157.50">
        <route edges="E_S3N_J3 E_J3_O"/>
    </vehicle>
    <vehicle id="v142" type="car" depart="159.00">
        <route edges="E_A_J1 E_J1_J2 E_J2_J3 E_J3_O"/>
    </vehicle>
    <vehicle id="v143" type="car" depart="160.50">
        <route edges="E_A_J1 E_J1_J2 E_J2_J3 E_J3_O"/>
    </vehicle>
    <vehicle id="v144" type="car" depart="162.00">
        <route edges="E_A_J1 E_J1_J2 E_J2_J3 E_J3_O"/>
    </vehicle>
    <vehicle id="v145" type="car" depart="162.00">
        <route edges="E_S1N_J1 E_J1_J2 E_J2_J3 E_J3_O"/>
    </vehicle>
    <vehicle id="v146" type="car" depart="163.50">
        <route edges="E_A_J1 E_J1_J2 E_J2_J3 E_J3_O"/>
    </vehicle>
    <vehicle id="v147" type="car" depart="165.00">
        <route edges="E_A_J1 E_J1_J2 E_J2_J3 E_J3_O"/>
    </vehicle>
    <vehicle id="v148" type="car" depart="166.50">
        <route edges="E_A_J1 E_J1_J2 E_J2_J3 E_J3_O"/>
    </vehicle>
    <vehicle id="v149" type="car" depart="166.50">
        <route edges="E_S2N_J2 E_J2_J3 E_J3_O"/>
    </vehicle>
    <vehicle id="v150" type="car" depart="168.00">
        <route edges="E_A_J1 E_J1_J2 E_J2_J3 E_J3_O"/>
    </vehicle>
    <vehicle id="v151" type="car" depart="169.50">
        <route edges="E_A_J1 E_J1_J2 E_J2_J3 E_J3_O"/>
    </vehicle>
    <vehicle id="v152" type="car" depart="171.00">
        <route edges="E_A_J1 E_J1_J2 E_J2_J3 E_J3_O"/>
    </vehicle>
    <vehicle id="v153" type="car" depart="171.00">
        <route edges="E_S3N_J3 E_J3_O"/>
    </vehicle>
    <vehicle id="v154" type="car" depart="172.50">
        <route edges="E_A_J1 E_J1_J2 E_J2_J3 E_J3_O"/>
    </vehicle>
    <vehicle id="v155" type="car" depart="174.00">
        <route edges="E_A_J1 E_J1_J2 E_J2_J3 E_J3_O"/>
    </vehicle>
    <vehicle id="v156" type="car" depart="175.50">
        <route edges="E_A_J1 E_J1_J2 E_J2_J3 E_J3_O"/>
    </vehicle>
    <vehicle id="v157" type="car" depart="175.50">
        <route edges="E_S1N_J1 E_J1_J2 E_J2_J3 E_J3_O"/>
    </vehicle>
    <vehicle id="v158" type="car" depart="177.00">
        <route edges="E_A_J1 E_J1_J2 E_J2_J3 E_J3_O"/>
    </vehicle>
    <vehicle id="v159" type="car" depart="178.50">
        <route edges="E_A_J1 E_J1_J2 E_J2_J3 E_J3_O"/>
    </vehicle>
    <vehicle id="v160" type="car" depart="180.00">
        <route edges="E_A_J1 E_J1_J2 E_J2_J3 E_J3_O"/>
    </vehicle>
    <vehicle id="v161" type="car" depart="180.00">
        <route edges="E_S2N_J2 E_J2_J3 E_J3_O"/>
    </vehicle>
    <vehicle id="v162" type="car" depart="181.50">
        <route edges="E_A_J1 E_J1_J2 E_J2_J3 E_J3_O"/>
    </vehicle>
    <vehicle id="v163" type="car" depart="183.00">
        <route edges="E_A_J1 E_J1_J2 E_J2_J3 E_J3_O"/>
    </vehicle>
    <vehicle id="v164" type="car" depart="184.50">
        <route edges="E_A_J1 E_J1_J2 E_J2_J3 E_J3_O"/>
    </vehicle>
    <vehicle id="v165" type="car" depart="184.50">
        <route edges="E_S3N_J3 E_J3_O"/>
    </vehicle>
    <vehicle id="v166" type="car" depart="186.00">
        <route edges="E_A_J1 E_J1_J2 E_J2_J3 E_J3_O"/>
    </vehicle>
    <vehicle id="v167" type="car" depart="187.50">
        <route edges="E_A_J1 E_J1_J2 E_J2_J3 E_J3_O"/>
    </vehicle>
    <vehicle id="v168" type="car" depart="189.00">
        <route edges="E_A_J1 E_J1_J2 E_J2_J3 E_J3_O"/>
    </vehicle>
    <vehicle id="v169" type="car" depart="189.00">
        <route edges="E_S1N_J1 E_J1_J2 E_J2_J3 E_J3_O"/>
    </vehicle>
    <vehicle id="v170" type="car" depart="190.50">
        <route edges="E_A_J1 E_J1_J2 E_J2_J3 E_J3_O"/>
    </vehicle>
    <vehicle id="v171" type="car" depart="192.00">
        <route edges="E_A_J1 E_J1_J2 E_J2_J3 E_J3_O"/>
    </vehicle>
    <vehicle id="v172" type="car" depart="193.50">
        <route edges="E_A_J1 E_J1_J2 E_J2_J3 E_J3_O"/>
    </vehicle>
    <vehicle id="v173" type="car" depart="193.50">
        <route edges="E_S2N_J2 E_J2_J3 E_J3_O"/>
    </vehicle>
    <vehicle id="v174" type="car" depart="195.00">
        <route edges="E_A_J1 E_J1_J2 E_J2_J3 E_J3_O"/>
    </vehicle>
    <vehicle id="v175" type="car" depart="196.50">
        <route edges="E_A_J1 E_J1_J2 E_J2_J3 E_J3_O"/>
    </vehicle>
    <vehicle id="v176" type="car" depart="198.00">
        <route edges="E_A_J1 E_J1_J2 E_J2_J3 E_J3_O"/>
    </vehicle>
    <vehicle id="v177" type="car" depart="198.00">
        <route edges="E_S3N_J3 E_J3_O"/>
    </vehicle>
    <vehicle id="v178" type="car" depart="199.50">
        <route edges="E_A_J1 E_J1_J2 E_J2_J3 E_J3_O"/>
    </vehicle>
    <vehicle id="v179" type="car" depart="201.00">
        <route edges="E_A_J1 E_J1_J2 E_J2_J3 E_J3_O"/>
    </vehicle>
    <vehicle id="v180" type="car" depart="202.50">
        <route edges="E_A_J1 E_J1_J2 E_J2_J3 E_J3_O"/>
    </vehicle>
    <vehicle id="v181" type="car" depart="202.50">
        <route edges="E_S1N_J1 E_J1_J2 E_J2_J3 E_J3_O"/>
    </vehicle>
    <vehicle id="v182" type="car" depart="204.00">
        <route edges="E_A_J1 E_J1_J2 E_J2_J3 E_J3_O"/>
    </vehicle>
    <vehicle id="v183" type="car" depart="205.50">
        <route edges="E_A_J1 E_J1_J2 E_J2_J3 E_J3_O"/>
    </vehicle>
    <vehicle id="v184" type="car" depart="207.00">
        <route edges="E_A_J1 E_J1_J2 E_J2_J3 E_J3_O"/>
    </vehicle>
    <vehicle id="v185" type="car" depart="207.00">
        <route edges="E_S2N_J2 E_J2_J3 E_J3_O"/>
    </vehicle>
    <vehicle id="v186" type="car" depart="208.50">
        <route edges="E_A_J1 E_J1_J2 E_J2_J3 E_J3_O"/>
    </vehicle>
    <vehicle id="v187" type="car" depart="210.00">
        <route edges="E_A_J1 E_J1_J2 E_J2_J3 E_J3_O"/>
    </vehicle>
    <vehicle id="v188" type="car" depart="211.50">
        <route edges="E_A_J1 E_J1_J2 E_J2_J3 E_J3_O"/>
    </vehicle>
    <vehicle id="v189" type="car" depart="211.50">
        <route edges="E_S3N_J3 E_J3_O"/>
    </vehicle>
    <vehicle id="v190" type="car" depart="213.00">
        <route edges="E_A_J1 E_J1_J2 E_J2_J3 E_J3_O"/>
    </vehicle>
    <vehicle id="v191" type="car" depart="214.50">
        <route edges="E_A_J1 E_J1_J2 E_J2_J3 E_J3_O"/>
    </vehicle>
    <vehicle id="v192" type="car" depart="216.00">
        <route edges="E_A_J1 E_J1_J2 E_J2_J3 E_J3_O"/>
    </vehicle>
    <vehicle id="v193" type="car" depart="216.00">
        <route edges="E_S1N_J1 E_J1_J2 E_J2_J3 E_J3_O"/>
    </vehicle>
    <vehicle id="v194" type="car" depart="217.50">
        <route edges="E_A_J1 E_J1_J2 E_J2_J3 E_J3_O"/>
    </vehicle>
    <vehicle id="v195" type="car" depart="219.00">
        <route edges="E_A_J1 E_J1_J2 E_J2_J3 E_J3_O"/>
    </vehicle>
    <vehicle id="v196" type="car" depart="220.50">
        <route edges="E_A_J1 E_J1_J2 E_J2_J3 E_J3_O"/>
    </vehicle>
    <vehicle id="v197" type="car" depart="220.50">
        <route edges="E_S2N_J2 E_J2_J3 E_J3_O"/>
    </vehicle>
    <vehicle id="v198" type="car" depart="222.00">
        <route edges="E_A_J1 E_J1_J2 E_J2_J3 E_J3_O"/>
    </vehicle>
    <vehicle id="v199" type="car" depart="223.50">
        <route edges="E_A_J1 E_J1_J2 E_J2_J3 E_J3_O"/>
    </vehicle>
    <vehicle id="v200" type="car" depart="225.00">
        <route edges="E_A_J1 E_J1_J2 E_J2_J3 E_J3_O"/>
    </vehicle>
    <vehicle id="v201" type="car" depart="225.00">
        <route edges="E_S3N_J3 E_J3_O"/>
    </vehicle>
    <vehicle id="v202" type="car" depart="226.50">
        <route edges="E_A_J1 E_J1_J2 E_J2_J3 E_J3_O"/>
    </vehicle>
    <vehicle id="v203" type="car" depart="228.00">
        <route edges="E_A_J1 E_J1_J2 E_J2_J3 E_J3_O"/>
    </vehicle>
    <vehicle id="v204" type="car" depart="229.50">
        <route edges="E_A_J1 E_J1_J2 E_J2_J3 E_J3_O"/>
    </vehicle>
    <vehicle id="v205" type="car" depart="229.50">
        <route edges="E_S1N_J1 E_J1_J2 E_J2_J3 E_J3_O"/>
    </vehicle>
    <vehicle id="v206" type="car" depart="231.00">
        <route edges="E_A_J1 E_J1_J2 E_J2_J3 E_J3_O"/>
    </vehicle>
    <vehicle id="v207" type="car" depart="232.50">
        <route edges="E_A_J1 E_J1_J2 E_J2_J3 E_J3_O"/>
    </vehicle>
    <vehicle id="v208" type="car" depart="234.00">
        <route edges="E_A_J1 E_J1_J2 E_J2_J3 E_J3_O"/>
    </vehicle>
    <vehicle id="v209" type="car" depart="234.00">
        <route edges="E_S2N_J2 E_J2_J3 E_J3_O"/>
    </vehicle>
    <vehicle id="v210" type="car" depart="235.50">
        <route edges="E_A_J1 E_J1_J2 E_J2_J3 E_J3_O"/>
    </vehicle>
    <vehicle id="v211" type="car" depart="237.00">
        <route edges="E_A_J1 E_J1_J2 E_J2_J3 E_J3_O"/>
    </vehicle>
    <vehicle id="v212" type="car" depart="238.50">
        <route edges="E_A_J1 E_J1_J2 E_J2_J3 E_J3_O"/>
    </vehicle>
    <vehicle id="v213" type="car" depart="238.50">
        <route edges="E_S3N_J3 E_J3_O"/>
    </vehicle>
    <vehicle id="v214" type="car" depart="240.00">
        <route edges="E_A_J1 E_J1_J2 E_J2_J3 E_J3_O"/>
    </vehicle>
    <vehicle id="v215" type="car" depart="241.50">
        <route edges="E_A_J1 E_J1_J2 E_J2_J3 E_J3_O"/>
    </vehicle>
    <vehicle id="v216" type="car" depart="243.00">
        <route edges="E_A_J1 E_J1_J2 E_J2_J3 E_J3_O"/>
    </vehicle>
    <vehicle id="v217" type="car" depart="243.00">
        <route edges="E_S1N_J1 E_J1_J2 E_J2_J3 E_J3_O"/>
    </vehicle>
    <vehicle id="v218" type="car" depart="244.50">
        <route edges="E_A_J1 E_J1_J2 E_J2_J3 E_J3_O"/>
    </vehicle>
    <vehicle id="v219" type="car" depart="246.00">
        <route edges="E_A_J1 E_J1_J2 E_J2_J3 E_J3_O"/>
    </vehicle>
    <vehicle id="v220" type="car" depart="247.50">
        <route edges="E_A_J1 E_J1_J2 E_J2_J3 E_J3_O"/>
    </vehicle>
    <vehicle id="v221" type="car" depart="247.50">
        <route edges="E_S2N_J2 E_J2_J3 E_J3_O"/>
    </vehicle>
    <vehicle id="v222" type="car" depart="249.00">
        <route edges="E_A_J1 E_J1_J2 E_J2_J3 E_J3_O"/>
    </vehicle>
    <vehicle id="v223" type="car" depart="250.50">
        <route edges="E_A_J1 E_J1_J2 E_J2_J3 E_J3_O"/>
    </vehicle>
    <vehicle id="v224" type="car" depart="252.00">
        <route edges="E_A_J1 E_J1_J2 E_J2_J3 E_J3_O"/>
    </vehicle>
    <vehicle id="v225" type="car" depart="252.00">
        <route edges="E_S3N_J3 E_J3_O"/>
    </vehicle>
    <vehicle id="v226" type="car" depart="253.50">
        <route edges="E_A_J1 E_J1_J2 E_J2_J3 E_J3_O"/>
    </vehicle>
    <vehicle id="v227" type="car" depart="255.00">
        <route edges="E_A_J1 E_J1_J2 E_J2_J3 E_J3_O"/>
    </vehicle>
    <vehicle id="v228" type="car" depart="256.50">
        <route edges="E_A_J1 E_J1_J2 E_J2_J3 E_J3_O"/>
    </vehicle>
    <vehicle id="v229" type="car" depart="256.50">
        <route edges="E_S1N_J1 E_J1_J2 E_J2_J3 E_J3_O"/>
    </vehicle>
    <vehicle id="v230" type="car" depart="258.00">
        <route edges="E_A_J1 E_J1_J2 E_J2_J3 E_J3_O"/>
    </vehicle>
    <vehicle id="v231" type="car" depart="259.50">
        <route edges="E_A_J1 E_J1_J2 E_J2_J3 E_J3_O"/>
    </vehicle>
    <vehicle id="v232" type="car" depart="261.00">
        <route edges="E_A_J1 E_J1_J2 E_J2_J3 E_J3_O"/>
    </vehicle>
    <vehicle id="v233" type="car" depart="261.00">
        <route edges="E_S2N_J2 E_J2_J3 E_J3_O"/>
    </vehicle>
    <vehicle id="v234" type="car" depart="262.50">
        <route edges="E_A_J1 E_J1_J2 E_J2_J3 E_J3_O"/>
    </vehicle>
    <vehicle id="v235" type="car" depart="264.00">
        <route edges="E_A_J1 E_J1_J2 E_J2_J3 E_J3_O"/>
    </vehicle>
    <vehicle id="v236" type="car" depart="265.50">
        <route edges="E_A_J1 E_J1_J2 E_J2_J3 E_J3_O"/>
    </vehicle>
    <vehicle id="v237" type="car" depart="265.50">
        <route edges="E_S3N_J3 E_J3_O"/>
    </vehicle>
    <vehicle id="v238" type="car" depart="267.00">
        <route edges="E_A_J1 E_J1_J2 E_J2_J3 E_J3_O"/>
    </vehicle>
    <vehicle id="v239" type="car" depart="268.50">
        <route edges="E_A_J1 E_J1_J2 E_J2_J3 E_J3_O"/>
    </vehicle>
    <vehicle id="v240" type="car" depart="270.00">
        <route edges="E_A_J1 E_J1_J2 E_J2_J3 E_J3_O"/>
    </vehicle>
    <vehicle id="v241" type="car" depart="270.00">
        <route edges="E_S1N_J1 E_J1_J2 E_J2_J3 E_J3_O"/>
    </vehicle>
    <vehicle id="v242" type="car" depart="271.50">
        <route edges="E_A_J1 E_J1_J2 E_J2_J3 E_J3_O"/>
    </vehicle>
    <vehicle id="v243" type="car" depart="273.00">
        <route edges="E_A_J1 E_J1_J2 E_J2_J3 E_J3_O"/>
    </vehicle>
    <vehicle id="v244" type="car" depart="274.50">
        <route edges="E_A_J1 E_J1_J2 E_J2_J3 E_J3_O"/>
    </vehicle>
    <vehicle id="v245" type="car" depart="274.50">