<?xml version='1.0' encoding='utf-8'?>
<routes><trip id="v0" depart="0.0" type="car" from="E_A_J1" to="E_J3_O" /><trip id="v1" depart="0.0" type="car" from="E_S1N_J1" to="E_J3_O" /><trip id="v2" depart="1.5" type="car" from="E_A_J1" to="E_J3_O" /><trip id="v3" depart="3.0" type="car" from="E_A_J1" to="E_J3_O" /><trip id="v4" depart="4.5" type="car" from="E_A_J1" to="E_J3_O" /><trip id="v5" depart="4.5" type="car" from="E_S2N_J2" to="E_J3_O" /><trip id="v6" depart="6.0" type="car" from="E_A_J1" to="E_J3_O" /><trip id="v7" depart="7.5" type="car" from="E_A_J1" to="E_J3_O" /><trip id="v8" depart="9.0" type="car" from="E_A_J1" to="E_J3_O" /><trip id="v9" depart="9.0" type="car" from="E_S3N_J3" to="E_J3_O" /><trip id="v10" depart="10.5" type="car" from="E_A_J1" to="E_J3_O" /><trip id="v11" depart="12.0" type="car" from="E_A_J1" to="E_J3_O" /><trip id="v12" depart="13.5" type="car" from="E_A_J1" to="E_J3_O" /><trip id="v13" depart="13.5" type="car" from="E_S1N_J1" to="E_J3_O" /><trip id="v14" depart="15.0" type="car" from="E_A_J1" to="E_J3_O" /><trip id="v15" depart="16.5" type="car" from="E_A_J1" to="E_J3_O" /><trip id="v16" depart="18.0" type="car" from="E_A_J1" to="E_J3_O" /><trip id="v17" depart="18.0" type="car" from="E_S2N_J2" to="E_J3_O" /><trip id="v18" depart="19.5" type="car" from="E_A_J1" to="E_J3_O" /><trip id="v19" depart="21.0" type="car" from="E_A_J1" to="E_J3_O" /><trip id="v20" depart="22.5" type="car" from="E_A_J1" to="E_J3_O" /><trip id="v21" depart="22.5" type="car" from="E_S3N_J3" to="E_J3_O" /><trip id="v22" depart="24.0" type="car" from="E_A_J1" to="E_J3_O" /><trip id="v23" depart="25.5" type="car" from="E_A_J1" to="E_J3_O" /><trip id="v24" depart="27.0" type="car" from="E_A_J1" to="E_J3_O" /><trip id="v25" depart="27.0" type="car" from="E_S1N_J1" to="E_J3_O" /><trip id="v26" depart="28.5" type="car" from="E_A_J1" to="E_J3_O" /><trip id="v27" depart="30.0" type="car" from="E_A_J1" to="E_J3_O" /><trip id="v28" depart="31.5" type="car" from="E_A_J1" to="E_J3_O" /><trip id="v29" depart="31.5" type="car" from="E_S2N_J2" to="E_J3_O" /><trip id="v30" depart="33.0" type="car" from="E_A_J1" to="E_J3_O" /><trip id="v31" depart="34.5" type="car" from="E_A_J1" to="E_J3_O" /><trip id="v32" depart="36.0" type="car" from="E_A_J1" to="E_J3_O" /><trip id="v33" depart="36.0" type="car" from="E_S3N_J3" to="E_J3_O" /><trip id="v34" depart="37.5" type="car" from="E_A_J1" to="E_J3_O" /><trip id="v35" depart="39.0" type="car" from="E_A_J1" to="E_J3_O" /><trip id="v36" depart="40.5" type="car" from="E_A_J1" to="E_J3_O" /><trip id="v37" depart="40.5" type="car" from="E_S1N_J1" to="E_J3_O" /><trip id="v38" depart="42.0" type="car" from="E_A_J1" to="E_J3_O" /><trip id="v39" depart="43.5" type="car" from="E_A_J1" to="E_J3_O" /><trip id="v40" depart="45.0" type="car" from="E_A_J1" to="E_J3_O" /><trip id="v41" depart="45.0" type="car" from="E_S2N_J2" to="E_J3_O" /><trip id="v42" depart="46.5" type="car" from="E_A_J1" to="E_J3_O" /><trip id="v43" depart="48.0" type="car" from="E_A_J1" to="E_J3_O" /><trip id="v44" depart="49.5" type="car" from="E_A_J1" to="E_J3_O" /><trip id="v45" depart="49.5" type="car" from="E_S3N_J3" to="E_J3_O" /><trip id="v46" depart="51.0" type="car" from="E_A_J1" to="E_J3_O" /><trip id="v47" depart="52.5" type="car" from="E_A_J1" to="E_J3_O" /><trip id="v48" depart="54.0" type="car" from="E_A_J1" to="E_J3_O" /><trip id="v49" depart="54.0" type="car" from="E_S1N_J1" to="E_J3_O" /><trip id="v50" depart="55.5" type="car" from="E_A_J1" to="E_J3_O" /><trip id="v51" depart="57.0" type="car" from="E_A_J1" to="E_J3_O" /><trip id="v52" depart="58.5" type="car" from="E_A_J1" to="E_J3_O" /><trip id="v53" depart="58.5" type="car" from="E_S2N_J2" to="E_J3_O" /><trip id="v54" depart="60.0" type="car" from="E_A_J1" to="E_J3_O" /><trip id="v55" depart="61.5" type="car" from="E_A_J1" to="E_J3_O" /><trip id="v56" depart="63.0" type="car" from="E_A_J1" to="E_J3_O" /><trip id="v57" depart="63.0" type="car" from="E_S3N_J3" to="E_J3_O" /><trip id="v58" depart="64.5" type="car" from="E_A_J1" to="E_J3_O" /><trip id="v59" depart="66.0" type="car" from="E_A_J1" to="E_J3_O" /><trip id="v60" depart="67.5" type="car" from="E_A_J1" to="E_J3_O" /><trip id="v61" depart="67.5" type="car" from="E_S1N_J1" to="E_J3_O" /><trip id="v62" depart="69.0" type="car" from="E_A_J1" to="E_J3_O" /><trip id="v63" depart="70.5" type="car" from="E_A_J1" to="E_J3_O" /><trip id="v64" depart="72.0" type="car" from="E_A_J1" to="E_J3_O" /><trip id="v65" depart="72.0" type="car" from="E_S2N_J2" to="E_J3_O" /><trip id="v66" depart="73.5" type="car" from="E_A_J1" to="E_J3_O" /><trip id="v67" depart="75.0" type="car" from="E_A_J1" to="E_J3_O" /><trip id="v68" depart="76.5" type="car" from="E_A_J1" to="E_J3_O" /><trip id="v69" depart="76.5" type="car" from="E_S3N_J3" to="E_J3_O" /><trip id="v70" depart="78.0" type="car" from="E_A_J1" to="E_J3_O" /><trip id="v71" depart="79.5" type="car" from="E_A_J1" to="E_J3_O" /><trip id="v72" depart="81.0" type="car" from="E_A_J1" to="E_J3_O" /><trip id="v73" depart="81.0" type="car" from="E_S1N_J1" to="E_J3_O" /><trip id="v74" depart="82.5" type="car" from="E_A_J1" to="E_J3_O" /><trip id="v75" depart="84.0" type="car" from="E_A_J1" to="E_J3_O" /><trip id="v76" depart="85.5" type="car" from="E_A_J1" to="E_J3_O" /><trip id="v77" depart="85.5" type="car" from="E_S2N_J2" to="E_J3_O" /><trip id="v78" depart="87.0" type="car" from="E_A_J1" to="E_J3_O" /><trip id="v79" depart="88.5" type="car" from="E_A_J1" to="E_J3_O" /><trip id="v80" depart="90.0" type="car" from="E_A_J1" to="E_J3_O" /><trip id="v81" depart="90.0" type="car" from="E_S3N_J3" to="E_J3_O" /><trip id="v82" depart="91.5" type="car" from="E_A_J1" to="E_J3_O" /><trip id="v83" depart="93.0" type="car" from="E_A_J1" to="E_J3_O" /><trip id="v84" depart="94.5" type="car" from="E_A_J1" to="E_J3_O" /><trip id="v85" depart="94.5" type="car" from="E_S1N_J1" to="E_J3_O" /><trip id="v86" depart="96.0" type="car" from="E_A_J1" to="E_J3_O" /><trip id="v87" depart="97.5" type="car" from="E_A_J1" to="E_J3_O" /><trip id="v88" depart="99.0" type="car" from="E_A_J1" to="E_J3_O" /><trip id="v89" depart="99.0" type="car" from="E_S2N_J2" to="E_J3_O" /><trip id="v90" depart="100.5" type="car" from="E_A_J1" to="E_J3_O" /><trip id="v91" depart="102.0" type="car" from="E_A_J1" to="E_J3_O" /><trip id="v92" depart="103.5" type="car" from="E_A_J1" to="E_J3_O" /><trip id="v93" depart="103.5" type="car" from="E_S3N_J3" to="E_J3_O" /><trip id="v94" depart="105.0" type="car" from="E_A_J1" to="E_J3_O" /><trip id="v95" depart="106.5" type="car" from="E_A_J1" to="E_J3_O" /><trip id="v96" depart="108.0" type="car" from="E_A_J1" to="E_J3_O" /><trip id="v97" depart="108.0" type="car" from="E_S1N_J1" to="E_J3_O" /><trip id="v98" depart="109.5" type="car" from="E_A_J1" to="E_J3_O" /><trip id="v99" depart="111.0" type="car" from="E_A_J1" to="E_J3_O" /><trip id="v100" depart="112.5" type="car" from="E_A_J1" to="E_J3_O" /><trip id="v101" depart="112.5" type="car" from="E_S2N_J2" to="E_J3_O" /><trip id="v102" depart="114.0" type="car" from="E_A_J1" to="E_J3_O" /><trip id="v103" depart="115.5" type="car" from="E_A_J1" to="E_J3_O" /><trip id="v104" depart="117.0" type="car" from="E_A_J1" to="E_J3_O" /><trip id="v105" depart="117.0" type="car" from="E_S3N_J3" to="E_J3_O" /><trip id="v106" depart="118.5" type="car" from="E_A_J1" to="E_J3_O" /><trip id="v107" depart="120.0" type="car" from="E_A_J1" to="E_J3_O" /><trip id="v108" depart="121.5" type="car" from="E_A_J1" to="E_J3_O" /><trip id="v109" depart="121.5" type="car" from="E_S1N_J1" to="E_J3_O" /><trip id="v110" depart="123.0" type="car" from="E_A_J1" to="E_J3_O" /><trip id="v111" depart="124.5" type="car" from="E_A_J1" to="E_J3_O" /><trip id="v112" depart="126.0" type="car" from="E_A_J1" to="E_J3_O" /><trip id="v113" depart="126.0" type="car" from="E_S2N_J2" to="E_J3_O" /><trip id="v114" depart="127.5" type="car" from="E_A_J1" to="E_J3_O" /><trip id="v115" depart="129.0" type="car" from="E_A_J1" to="E_J3_O" /><trip id="v116" depart="130.5" type="car" from="E_A_J1" to="E_J3_O" /><trip id="v117" depart="130.5" type="car" from="E_S3N_J3" to="E_J3_O" /><trip id="v118" depart="132.0" type="car" from="E_A_J1" to="E_J3_O" /><trip id="v119" depart="133.5" type="car" from="E_A_J1" to="E_J3_O" /><trip id="v120" depart="135.0" type="car" from="E_A_J1" to="E_J3_O" /><trip id="v121" depart="135.0" type="car" from="E_S1N_J1" to="E_J3_O" /><trip id="v122" depart="136.5" type="car" from="E_A_J1" to="E_J3_O" /><trip id="v123" depart="138.0" type="car" from="E_A_J1" to="E_J3_O" /><trip id="v124" depart="139.5" type="car" from="E_A_J1" to="E_J3_O" /><trip id="v125" depart="139.5" type="car" from="E_S2N_J2" to="E_J3_O" /><trip id="v126" depart="141.0" type="car" from="E_A_J1" to="E_J3_O" /><trip id="v127" depart="142.5" type="car" from="E_A_J1" to="E_J3_O" /><trip id="v128" depart="144.0" type="car" from="E_A_J1" to="E_J3_O" /><trip id="v129" depart="144.0" type="car" from="E_S3N_J3" to="E_J3_O" /><trip id="v130" depart="145.5" type="car" from="E_A_J1" to="E_J3_O" /><trip id="v131" depart="147.0" type="car" from="E_A_J1" to="E_J3_O" /><trip id="v132" depart="148.5" type="car" from="E_A_J1" to="E_J3_O" /><trip id="v133" depart="148.5" type="car" from="E_S1N_J1" to="E_J3_O" /><trip id="v134" depart="150.0" type="car" from="E_A_J1" to="E_J3_O" /><trip id="v135" depart="151.5" type="car" from="E_A_J1" to="E_J3_O" /><trip id="v136" depart="153.0" type="car" from="E_A_J1" to="E_J3_O" /><trip id="v137" depart="153.0" type="car" from="E_S2N_J2" to="E_J3_O" /><trip id="v138" depart="154.5" type="car" from="E_A_J1" to="E_J3_O" /><trip id="v139" depart="156.0" type="car" from="E_A_J1" to="E_J3_O" /><trip id="v140" depart="157.5" type="car" from="E_A_J1" to="E_J3_O" /><trip id="v141" depart="157.5" type="car" from="E_S3N_J3" to="E_J3_O" /><trip id="v142" depart="159.0" type="car" from="E_A_J1" to="E_J3_O" /><trip id="v143" depart="160.5" type="car" from="E_A_J1" to="E_J3_O" /><trip id="v144" depart="162.0" type="car" from="E_A_J1" to="E_J3_O" /><trip id="v145" depart="162.0" type="car" from="E_S1N_J1" to="E_J3_O" /><trip id="v146" depart="163.5" type="car" from="E_A_J1" to="E_J3_O" /><trip id="v147" depart="165.0" type="car" from="E_A_J1" to="E_J3_O" /><trip id="v148" depart="166.5" type="car" from="E_A_J1" to="E_J3_O" /><trip id="v149" depart="166.5" type="car" from="E_S2N_J2" to="E_J3_O" /><trip id="v150" depart="168.0" type="car" from="E_A_J1" to="E_J3_O" /><trip id="v151" depart="169.5" type="car" from="E_A_J1" to="E_J3_O" /><trip id="v152" depart="171.0" type="car" from="E_A_J1" to="E_J3_O" /><trip id="v153" depart="171.0" type="car" from="E_S3N_J3" to="E_J3_O" /><trip id="v154" depart="172.5" type="car" from="E_A_J1" to="E_J3_O" /><trip id="v155" depart="174.0" type="car" from="E_A_J1" to="E_J3_O" /><trip id="v156" depart="175.5" type="car" from="E_A_J1" to="E_J3_O" /><trip id="v157" depart="175.5" type="car" from="E_S1N_J1" to="E_J3_O" /><trip id="v158" depart="177.0" type="car" from="E_A_J1" to="E_J3_O" /><trip id="v159" depart="178.5" type="car" from="E_A_J1" to="E_J3_O" /><trip id="v160" depart="180.0" type="car" from="E_A_J1" to="E_J3_O" /><trip id="v161" depart="180.0" type="car" from="E_S2N_J2" to="E_J3_O" /><trip id="v162" depart="181.5" type="car" from="E_A_J1" to="E_J3_O" /><trip id="v163" depart="183.0" type="car" from="E_A_J1" to="E_J3_O" /><trip id="v164" depart="184.5" type="car" from="E_A_J1" to="E_J3_O" /><trip id="v165" depart="184.5" type="car" from="E_S3N_J3" to="E_J3_O" /><trip id="v166" depart="186.0" type="car" from="E_A_J1" to="E_J3_O" /><trip id="v167" depart="187.5" type="car" from="E_A_J1" to="E_J3_O" /><trip id="v168" depart="189.0" type="car" from="E_A_J1" to="E_J3_O" /><trip id="v169" depart="189.0" type="car" from="E_S1N_J1" to="E_J3_O" /><trip id="v170" depart="190.5" type="car" from="E_A_J1" to="E_J3_O" /><trip id="v171" depart="192.0" type="car" from="E_A_J1" to="E_J3_O" /><trip id="v172" depart="193.5" type="car" from="E_A_J1" to="E_J3_O" /><trip id="v173" depart="193.5" type="car" from="E_S2N_J2" to="E_J3_O" /><trip id="v174" depart="195.0" type="car" from="E_A_J1" to="E_J3_O" /><trip id="v175" depart="196.5" type="car" from="E_A_J1" to="E_J3_O" /><trip id="v176" depart="198.0" type="car" from="E_A_J1" to="E_J3_O" /><trip id="v177" depart="198.0" type="car" from="E_S3N_J3" to="E_J3_O" /><trip id="v178" depart="199.5" type="car" from="E_A_J1" to="E_J3_O" /><trip id="v179" depart="201.0" type="car" from="E_A_J1" to="E_J3_O" /><trip id="v180" depart="202.5" type="car" from="E_A_J1" to="E_J3_O" /><trip id="v181" depart="202.5" type="car" from="E_S1N_J1" to="E_J3_O" /><trip id="v182" depart="204.0" type="car" from="E_A_J1" to="E_J3_O" /><trip id="v183" depart="205.5" type="car" from="E_A_J1" to="E_J3_O" /><trip id="v184" depart="207.0" type="car" from="E_A_J1" to="E_J3_O" /><trip id="v185" depart="207.0" type="car" from="E_S2N_J2" to="E_J3_O" /><trip id="v186" depart="208.5" type="car" from="E_A_J1" to="E_J3_O" /><trip id="v187" depart="210.0" type="car" from="E_A_J1" to="E_J3_O" /><trip id="v188" depart="211.5" type="car" from="E_A_J1" to="E_J3_O" /><trip id="v189" depart="211.5" type="car" from="E_S3N_J3" to="E_J3_O" /><trip id="v190" depart="213.0" type="car" from="E_A_J1" to="E_J3_O" /><trip id="v191" depart="214.5" type="car" from="E_A_J1" to="E_J3_O" /><trip id="v192" depart="216.0" type="car" from="E_A_J1" to="E_J3_O" /><trip id="v193" depart="216.0" type="car" from="E_S1N_J1" to="E_J3_O" /><trip id="v194" depart="217.5" type="car" from="E_A_J1" to="E_J3_O" /><trip id="v195" depart="219.0" type="car" from="E_A_J1" to="E_J3_O" /><trip id="v196" depart="220.5" type="car" from="E_A_J1" to="E_J3_O" /><trip id="v197" depart="220.5" type="car" from="E_S2N_J2" to="E_J3_O" /><trip id="v198" depart="222.0" type="car" from="E_A_J1" to="E_J3_O" /><trip id="v199" depart="223.5" type="car" from="E_A_J1" to="E_J3_O" /><trip id="v200" depart="225.0" type="car" from="E_A_J1" to="E_J3_O" /><trip id="v201" depart="225.0" type="car" from="E_S3N_J3" to="E_J3_O" /><trip id="v202" depart="226.5" type="car" from="E_A_J1" to="E_J3_O" /><trip id="v203" depart="228.0" type="car" from="E_A_J1" to="E_J3_O" /><trip id="v204" depart="229.5" type="car" from="E_A_J1" to="E_J3_O" /><trip id="v205" depart="229.5" type="car" from="E_S1N_J1" to="E_J3_O" /><trip id="v206" depart="231.0" type="car" from="E_A_J1" to="E_J3_O" /><trip id="v207" depart="232.5" type="car" from="E_A_J1" to="E_J3_O" /><trip id="v208" depart="234.0" type="car" from="E_A_J1" to="E_J3_O" /><trip id="v209" depart="234.0" type="car" from="E_S2N_J2" to="E_J3_O" /><trip id="v210" depart="235.5" type="car" from="E_A_J1" to="E_J3_O" /><trip id="v211" depart="237.0" type="car" from="E_A_J1" to="E_J3_O" /><trip id="v212" depart="238.5" type="car" from="E_A_J1" to="E_J3_O" /><trip id="v213" depart="238.5" type="car" from="E_S3N_J3" to="E_J3_O" /><trip id="v214" depart="240.0" type="car" from="E_A_J1" to="E_J3_O" /><trip id="v215" depart="241.5" type="car" from="E_A_J1" to="E_J3_O" /><trip id="v216" depart="243.0" type="car" from="E_A_J1" to="E_J3_O" /><trip id="v217" depart="243.0" type="car" from="E_S1N_J1" to="E_J3_O" /><trip id="v218" depart="244.5" type="car" from="E_A_J1" to="E_J3_O" /><trip id="v219" depart="246.0" type="car" from="E_A_J1" to="E_J3_O" /><trip id="v220" depart="247.5" type="car" from="E_A_J1" to="E_J3_O" /><trip id="v221" depart="247.5" type="car" from="E_S2N_J2" to="E_J3_O" /><trip id="v222" depart="249.0" type="car" from="E_A_J1" to="E_J3_O" /><trip id="v223" depart="250.5" type="car" from="E_A_J1" to="E_J3_O" /><trip id="v224" depart="252.0" type="car" from="E_A_J1" to="E_J3_O" /><trip id="v225" depart="252.0" type="car" from="E_S3N_J3" to="E_J3_O" /><trip id="v226" depart="253.5" type="car" from="E_A_J1" to="E_J3_O" /><trip id="v227" depart="255.0" type="car" from="E_A_J1" to="E_J3_O" /><trip id="v228" depart="256.5" type="car" from="E_A_J1" to="E_J3_O" /><trip id="v229" depart="256.5" type="car" from="E_S1N_J1" to="E_J3_O" /><trip id="v230" depart="258.0" type="car" from="E_A_J1" to="E_J3_O" /><trip id="v231" depart="259.5" type="car" from="E_A_J1" to="E_J3_O" /><trip id="v232" depart="261.0" type="car" from="E_A_J1" to="E_J3_O" /><trip id="v233" depart="261.0" type="car" from="E_S2N_J2" to="E_J3_O" /><trip id="v234" depart="262.5" type="car" from="E_A_J1" to="E_J3_O" /><trip id="v235" depart="264.0" type="car" from="E_A_J1" to="E_J3_O" /><trip id="v236" depart="265.5" type="car" from="E_A_J1" to="E_J3_O" /><trip id="v237" depart="265.5" type="car" from="E_S3N_J3" to="E_J3_O" /><trip id="v238" depart="267.0" type="car" from="E_A_J1" to="E_J3_O" /><trip id="v239" depart="268.5" type="car" from="E_A_J1" to="E_J3_O" /><trip id="v240" depart="270.0" type="car" from="E_A_J1" to="E_J3_O" /><trip id="v241" depart="270.0" type="car" from="E_S1N_J1" to="E_J3_O" /><trip id="v242" depart="271.5" type="car" from="E_A_J1" to="E_J3_O" /><trip id="v243" depart="273.0" type="car" from="E_A_J1" to="E_J3_O" /><trip id="v244" depart="274.5" type="car" from="E_A_J1" to="E_J3_O" /><trip id="v245" depart="274.5" type="car" from="E_S2N_J2" to="E_J3_O" /><trip id="v246" depart="276.0" type="car" from="E_A_J1" to="E_J3_O" /><trip id="v247" depart="277.5" type="car" from="E_A_J1" to="E_J3_O" /><trip id="v248" depart="279.0" type="car" from="E_A_J1" to="E_J3_O" /><trip id="v249" depart="279.0" type="car" from="E_S3N_J3" to="E_J3_O" /><trip id="v250" depart="280.5" type="car" from="E_A_J1" to="E_J3_O" /><trip id="v251" depart="282.0" type="car" from="E_A_J1" to="E_J3_O" /><trip id="v252" depart="283.5" type="car" from="E_A_J1" to="E_J3_O" /><trip id="v253" depart="283.5" type="car" from="E_S1N_J1" to="E_J3_O" /><trip id="v254" depart="285.0" type="car" from="E_A_J1" to="E_J3_O" /><trip id="v255" depart="286.5" type="car" from="E_A_J1" to="E_J3_O" /><trip id="v256" depart="288.0" type="car" from="E_A_J1" to="E_J3_O" /><trip id="v257" depart="288.0" type="car" from="E_S2N_J2" to="E_J3_O" /><trip id="v258" depart="289.5" type="car" from="E_A_J1" to="E_J3_O" /><trip id="v259" depart="291.0" type="car" from="E_A_J1" to="E_J3_O" /><trip id="v260" depart="292.5" type="car" from="E_A_J1" to="E_J3_O" /><trip id="v261" depart="292.5" type="car" from="E_S3N_J3" to="E_J3_O" /><trip id="v262" depart="294.0" type="car" from="E_A_J1" to="E_J3_O" /><trip id="v263" depart="295.5" type="car" from="E_A_J1" to="E_J3_O" /><trip id="v264" depart="297.0" type="car" from="E_A_J1" to="E_J3_O" /><trip id="v265" depart="297.0" type="car" from="E_S1N_J1" to="E_J3_O" /><trip id="v266" depart="298.5" type="car" from="E_A_J1" to="E_J3_O" /><trip id="v267" depart="300.0" type="car" from="E_A_J1" to="E_J3_O" /><trip id="v268" depart="301.5" type="car" from="E_A_J1" to="E_J3_O" /><trip id="v269" depart="301.5" type="car" from="E_S2N_J2" to="E_J3_O" /><trip id="v270" depart="303.0" type="car" from="E_A_J1" to="E_J3_O" /><trip id="v271" depart="304.5" type="car" from="E_A_J1" to="E_J3_O" /><trip id="v272" depart="306.0" type="car" from="E_A_J1" to="E_J3_O" /><trip id="v273" depart="306.0" type="car" from="E_S3N_J3" to="E_J3_O" /><trip id="v274" depart="307.5" type="car" from="E_A_J1" to="E_J3_O" /><trip id="v275" depart="309.0" type="car" from="E_A_J1" to="E_J3_O" /><trip id="v276" depart="310.5" type="car" from="E_A_J1" to="E_J3_O" /><trip id="v277" depart="310.5" type="car" from="E_S1N_J1" to="E_J3_O" /><trip id="v278" depart="312.0" type="car" from="E_A_J1" to="E_J3_O" /><trip id="v279" depart="313.5" type="car" from="E_A_J1" to="E_J3_O" /><trip id="v280" depart="315.0" type="car" from="E_A_J1" to="E_J3_O" /><trip id="v281" depart="315.0" type="car" from="E_S2N_J2" to="E_J3_O" /><trip id="v282" depart="316.5" type="car" from="E_A_J1" to="E_J3_O" /><trip id="v283" depart="318.0" type="car" from="E_A_J1" to="E_J3_O" /><trip id="v284" depart="319.5" type="car" from="E_A_J1" to="E_J3_O" /><trip id="v285" depart="319.5" type="car" from="E_S3N_J3" to="E_J3_O" /><trip id="v286" depart="321.0" type="car" from="E_A_J1" to="E_J3_O" /><trip id="v287" depart="322.5" type="car" from="E_A_J1" to="E_J3_O" /><trip id="v288" depart="324.0" type="car" from="E_A_J1" to="E_J3_O" /><trip id="v289" depart="324.0" type="car" from="E_S1N_J1" to="E_J3_O" /><trip id="v290" depart="325.5" type="car" from="E_A_J1" to="E_J3_O" /><trip id="v291" depart="327.0" type="car" from="E_A_J1" to="E_J3_O" /><trip id="v292" depart="328.5" type="car" from="E_A_J1" to="E_J3_O" /><trip id="v293" depart="328.5" type="car" from="E_S2N_J2" to="E_J3_O" /><trip id="v294" depart="330.0" type="car" from="E_A_J1" to="E_J3_O" /><trip id="v295" depart="331.5" type="car" from="E_A_J1" to="E_J3_O" /><trip id="v296" depart="333.0" type="car" from="E_A_J1" to="E_J3_O" /><trip id="v297" depart="333.0" type="car" from="E_S3N_J3" to="E_J3_O" /><trip id="v298" depart="334.5" type="car" from="E_A_J1" to="E_J3_O" /><trip id="v299" depart="336.0" type="car" from="E_A_J1" to="E_J3_O" /><trip id="v300" depart="337.5" type="car" from="E_A_J1" to="E_J3_O" /><trip id="v301" depart="337.5" type="car" from="E_S1N_J1" to="E_J3_O" /><trip id="v302" depart="339.0" type="car" from="E_A_J1" to="E_J3_O" /><trip id="v303" depart="340.5" type="car" from="E_A_J1" to="E_J3_O" /><trip id="v304" depart="342.0" type="car" from="E_A_J1" to="E_J3_O" /><trip id="v305" depart="342.0" type="car" from="E_S2N_J2" to="E_J3_O" /><trip id="v306" depart="343.5" type="car" from="E_A_J1" to="E_J3_O" /><trip id="v307" depart="345.0" type="car" from="E_A_J1" to="E_J3_O" /><trip id="v308" depart="346.5" type="car" from="E_A_J1" to="E_J3_O" /><trip id="v309" depart="346.5" type="car" from="E_S3N_J3" to="E_J3_O" /><trip id="v310" depart="348.0" type="car" from="E_A_J1" to="E_J3_O" /><trip id="v311" depart="349.5" type="car" from="E_A_J1" to="E_J3_O" /><trip id="v312" depart="351.0" type="car" from="E_A_J1" to="E_J3_O" /><trip id="v313" depart="351.0" type="car" from="E_S1N_J1" to="E_J3_O" /><trip id="v314" depart="352.5" type="car" from="E_A_J1" to="E_J3_O" /><trip id="v315" depart="354.0" type="car" from="E_A_J1" to="E_J3_O" /><trip id="v316" depart="355.5" type="car" from="E_A_J1" to="E_J3_O" /><trip id="v317" depart="355.5" type="car" from="E_S2N_J2" to="E_J3_O" /><trip id="v318" depart="357.0" type="car" from="E_A_J1" to="E_J3_O" /><trip id="v319" depart="358.5" type="car" from="E_A_J1" to="E_J3_O" /><trip id="v320" depart="360.0" type="car" from="E_A_J1" to="E_J3_O" /><trip id="v321" depart="360.0" type="car" from="E_S3N_J3" to="E_J3_O" /><trip id="v322" depart="361.5" type="car" from="E_A_J1" to="E_J3_O" /><trip id="v323" depart="363.0" type="car" from="E_A_J1" to="E_J3_O" /><trip id="v324" depart="364.5" type="car" from="E_A_J1" to="E_J3_O" /><trip id="v325" depart="364.5" type="car" from="E_S1N_J1" to="E_J3_O" /><trip id="v326" depart="366.0" type="car" from="E_A_J1" to="E_J3_O" /><trip id="v327" depart="367.5" type="car" from="E_A_J1" to="E_J3_O" /><trip id="v328" depart="369.0" type="car" from="E_A_J1" to="E_J3_O" /><trip id="v329" depart="369.0" type="car" from="E_S2N_J2" to="E_J3_O" /><trip id="v330" depart="370.5" type="car" from="E_A_J1" to="E_J3_O" /><trip id="v331" depart="372.0" type="car" from="E_A_J1" to="E_J3_O" /><trip id="v332" depart="373.5" type="car" from="E_A_J1" to="E_J3_O" /><trip id="v333" depart="373.5" type="car" from="E_S3N_J3" to="E_J3_O" /><trip id="v334" depart="375.0" type="car" from="E_A_J1" to="E_J3_O" /><trip id="v335" depart="376.5" type="car" from="E_A_J1" to="E_J3_O" /><trip id="v336" depart="378.0" type="car" from="E_A_J1" to="E_J3_O" /><trip id="v337" depart="378.0" type="car" from="E_S1N_J1" to="E_J3_O" /><trip id="v338" depart="379.5" type="car" from="E_A_J1" to="E_J3_O" /><trip id="v339" depart="381.0" type="car" from="E_A_J1" to="E_J3_O" /><trip id="v340" depart="382.5" type="car" from="E_A_J1" to="E_J3_O" /><trip id="v341" depart="382.5" type="car" from="E_S2N_J2" to="E_J3_O" /><trip id="v342" depart="384.0" type="car" from="E_A_J1" to="E_J3_O" /><trip id="v343" depart="385.5" type="car" from="E_A_J1" to="E_J3_O" /><trip id="v344" depart="387.0" type="car" from="E_A_J1" to="E_J3_O" /><trip id="v345" depart="387.0" type="car" from="E_S3N_J3" to="E_J3_O" /><trip id="v346" depart="388.5" type="car" from="E_A_J1" to="E_J3_O" /><trip id="v347" depart="390.0" type="car" from="E_A_J1" to="E_J3_O" /><trip id="v348" depart="391.5" type="car" from="E_A_J1" to="E_J3_O" /><trip id="v349" depart="391.5" type="car" from="E_S1N_J1" to="E_J3_O" /><trip id="v350" depart="393.0" type="car" from="E_A_J1" to="E_J3_O" /><trip id="v351" depart="394.5" type="car" from="E_A_J1" to="E_J3_O" /><trip id="v352" depart="396.0" type="car" from="E_A_J1" to="E_J3_O" /><trip id="v353" depart="396.0" type="car" from="E_S2N_J2" to="E_J3_O" /><trip id="v354" depart="397.5" type="car" from="E_A_J1" to="E_J3_O" /><trip id="v355" depart="399.0" type="car" from="E_A_J1" to="E_J3_O" /><trip id="v356" depart="400.5" type="car" from="E_A_J1" to="E_J3_O" /><trip id="v357" depart="400.5" type="car" from="E_S3N_J3" to="E_J3_O" /><trip id="v358" depart="402.0" type="car" from="E_A_J1" to="E_J3_O" /><trip id="v359" depart="403.5" type="car" from="E_A_J1" to="E_J3_O" /><trip id="v360" depart="405.0" type="car" from="E_A_J1" to="E_J3_O" /><trip id="v361" depart="405.0" type="car" from="E_S1N_J1" to="E_J3_O" /><trip id="v362" depart="406.5" type="car" from="E_A_J1" to="E_J3_O" /><trip id="v363" depart="408.0" type="car" from="E_A_J1" to="E_J3_O" /><trip id="v364" depart="409.5" type="car" from="E_A_J1" to="E_J3_O" /><trip id="v365" depart="409.5" type="car" from="E_S2N_J2" to="E_J3_O" /><trip id="v366" depart="411.0" type="car" from="E_A_J1" to="E_J3_O" /><trip id="v367" depart="412.5" type="car" from="E_A_J1" to="E_J3_O" /><trip id="v368" depart="414.0" type="car" from="E_A_J1" to="E_J3_O" /><trip id="v369" depart="414.0" type="car" from="E_S3N_J3" to="E_J3_O" /><trip id="v370" depart="415.5" type="car" from="E_A_J1" to="E_J3_O" /><trip id="v371" depart="417.0" type="car" from="E_A_J1" to="E_J3_O" /><trip id="v372" depart="418.5" type="car" from="E_A_J1" to="E_J3_O" /><trip id="v373" depart="418.5" type="car" from="E_S1N_J1" to="E_J3_O" /><trip id="v374" depart="420.0" type="car" from="E_A_J1" to="E_J3_O" /><trip id="v375" depart="421.5" type="car" from="E_A_J1" to="E_J3_O" /><trip id="v376" depart="423.0" type="car" from="E_A_J1" to="E_J3_O" /><trip id="v377" depart="423.0" type="car" from="E_S2N_J2" to="E_J3_O" /><trip id="v378" depart="424.5" type="car" from="E_A_J1" to="E_J3_O" /><trip id="v379" depart="426.0" type="car" from="E_A_J1" to="E_J3_O" /><trip id="v380" depart="427.5" type="car" from="E_A_J1" to="E_J3_O" /><trip id="v381" depart="427.5" type="car" from="E_S3N_J3" to="E_J3_O" /><trip id="v382" depart="429.0" type="car" from="E_A_J1" to="E_J3_O" /><trip id="v383" depart="430.5" type="car" from="E_A_J1" to="E_J3_O" /><trip id="v384" depart="432.0" type="car" from="E_A_J1" to="E_J3_O" /><trip id="v385" depart="432.0" type="car" from="E_S1N_J1" to="E_J3_O" /><trip id="v386" depart="433.5" type="car" from="E_A_J1" to="E_J3_O" /><trip id="v387" depart="435.0" type="car" from="E_A_J1" to="E_J3_O" /><trip id="v388" depart="436.5" type="car" from="E_A_J1" to="E_J3_O" /><trip id="v389" depart="436.5" type="car" from="E_S2N_J2" to="E_J3_O" /><trip id="v390" depart="438.0" type="car" from="E_A_J1" to="E_J3_O" /><trip id="v391" depart="439.5" type="car" from="E_A_J1" to="E_J3_O" /><trip id="v392" depart="441.0" type="car" from="E_A_J1" to="E_J3_O" /><trip id="v393" depart="441.0" type="car" from="E_S3N_J3" to="E_J3_O" /><trip id="v394" depart="442.5" type="car" from="E_A_J1" to="E_J3_O" /><trip id="v395" depart="444.0" type="car" from="E_A_J1" to="E_J3_O" /><trip id="v396" depart="445.5" type="car" from="E_A_J1" to="E_J3_O" /><trip id="v397" depart="445.5" type="car" from="E_S1N_J1" to="E_J3_O" /><trip id="v398" depart="447.0" type="car" from="E_A_J1" to="E_J3_O" /><trip id="v399" depart="448.5" type="car" from="E_A_J1" to="E_J3_O" /><trip id="v400" depart="450.0" type="car" from="E_A_J1" to="E_J3_O" /><trip id="v401" depart="450.0" type="car" from="E_S2N_J2" to="E_J3_O" /><trip id="v402" depart="451.5" type="car" from="E_A_J1" to="E_J3_O" /><trip id="v403" depart="453.0" type="car" from="E_A_J1" to="E_J3_O" /><trip id="v404" depart="454.5" type="car" from="E_A_J1" to="E_J3_O" /><trip id="v405" depart="454.5" type="car" from="E_S3N_J3" to="E_J3_O" /><trip id="v406" depart="456.0" type="car" from="E_A_J1" to="E_J3_O" /><trip id="v407" depart="457.5" type="car" from="E_A_J1" to="E_J3_O" /><trip id="v408" depart="459.0" type="car" from="E_A_J1" to="E_J3_O" /><trip id="v409" depart="459.0" type="car" from="E_S1N_J1" to="E_J3_O" /><trip id="v410" depart="460.5" type="car" from="E_A_J1" to="E_J3_O" /><trip id="v411" depart="462.0" type="car" from="E_A_J1" to="E_J3_O" /><trip id="v412" depart="463.5" type="car" from="E_A_J1" to="E_J3_O" /><trip id="v413" depart="463.5" type="car" from="E_S2N_J2" to="E_J3_O" /><trip id="v414" depart="465.0" type="car" from="E_A_J1" to="E_J3_O" /><trip id="v415" depart="466.5" type="car" from="E_A_J1" to="E_J3_O" /><trip id="v416" depart="468.0" type="car" from="E_A_J1" to="E_J3_O" /><trip id="v417" depart="468.0" type="car" from="E_S3N_J3" to="E_J3_O" /><trip id="v418" depart="469.5" type="car" from="E_A_J1" to="E_J3_O" /><trip id="v419" depart="471.0" type="car" from="E_A_J1" to="E_J3_O" /><trip id="v420" depart="472.5" type="car" from="E_A_J1" to="E_J3_O" /><trip id="v421" depart="472.5" type="car" from="E_S1N_J1" to="E_J3_O" /><trip id="v422" depart="474.0" type="car" from="E_A_J1" to="E_J3_O" /><trip id="v423" depart="475.5" type="car" from="E_A_J1" to="E_J3_O" /><trip id="v424" depart="477.0" type="car" from="E_A_J1" to="E_J3_O" /><trip id="v425" depart="477.0" type="car" from="E_S2N_J2" to="E_J3_O" /><trip id="v426" depart="478.5" type="car" from="E_A_J1" to="E_J3_O" /><trip id="v427" depart="480.0" type="car" from="E_A_J1" to=