<additional>
  <vType id="car" accel="2.6" decel="4.5" length="5.0" minGap="2.5" maxSpeed="13.9" guiShape="passenger"/>
</additional>
